Version 4.1
SHEET 1 880 680
WIRE 64 32 -192 32
WIRE 336 32 256 32
WIRE 512 32 416 32
WIRE 256 48 256 32
WIRE 64 64 64 32
WIRE -192 128 -192 32
WIRE 64 160 64 144
WIRE 112 160 64 160
WIRE 512 176 512 32
WIRE 512 176 400 176
WIRE 64 192 64 160
WIRE 112 192 112 160
WIRE 176 192 112 192
WIRE 304 192 256 192
WIRE 336 192 304 192
WIRE -448 336 -448 256
WIRE -192 336 -192 208
WIRE -64 336 -192 336
WIRE 64 336 64 272
WIRE 64 336 -64 336
WIRE 368 336 368 208
WIRE -64 368 -64 336
WIRE 144 448 144 432
WIRE 192 448 144 448
WIRE 304 448 304 192
WIRE 304 448 272 448
WIRE 144 480 144 448
WIRE 144 592 144 560
FLAG -64 368 0
FLAG 368 336 0
FLAG 144 592 0
FLAG 144 352 +3.3v
FLAG 368 144 +3.3v
FLAG -448 336 0
FLAG -448 176 +3.3v
SYMBOL res 48 48 R0
SYMATTR InstName R1
SYMATTR Value 1m
SYMBOL res 48 176 R0
SYMATTR InstName R2
SYMATTR Value 10K
SYMBOL voltage -192 112 R0
WINDOW 123 0 0 Left 0
WINDOW 39 0 0 Left 0
SYMATTR InstName V1
SYMATTR Value SINE(0 30 10000 0)
SYMBOL OpAmps\\OP227 368 112 R0
SYMATTR InstName U1
SYMBOL res 432 16 R90
WINDOW 0 0 56 VBottom 2
WINDOW 3 32 56 VTop 2
SYMATTR InstName R3
SYMATTR Value 1K
SYMBOL res 240 32 R0
SYMATTR InstName R4
SYMATTR Value 1K
SYMBOL res 272 176 R90
WINDOW 0 0 56 VBottom 2
WINDOW 3 32 56 VTop 2
SYMATTR InstName R5
SYMATTR Value 1K
SYMBOL res 128 336 R0
SYMATTR InstName R6
SYMATTR Value 10k
SYMBOL res 128 464 R0
SYMATTR InstName R7
SYMATTR Value 8.4k
SYMBOL res 288 432 R90
WINDOW 0 0 56 VBottom 2
WINDOW 3 32 56 VTop 2
SYMATTR InstName R8
SYMATTR Value 1k
SYMBOL voltage -448 160 R0
WINDOW 123 0 0 Left 0
WINDOW 39 0 0 Left 0
SYMATTR InstName V2
SYMATTR Value 3.3V
